*  Decoder
.lib '/home/ff/ee241/synopsys-32nm/hspice/saed32nm.lib' TT

.subckt interp_filt a<3> a<2> a<1> a<0> vdd vss z<15> z<14> z<13> z<12> z<11> z<10> z<9> z<8> z<7> z<6> z<5> z<4> z<3> z<2> z<1> z<0> clk
    Vvdd vdd 0 DC=1.05
    Vvss vss 0 DC=0
    .probe tran i(Vvdd)
    .measure pavg AVG par('1.05*i(Vvdd)') FROM=0 TO=3.2n

    cg1333 u38|mp5|drn 0 c=84.9463e-18
    cg1332 29:z<5> 0 c=4.49502e-18
    cg1331 19:z<5> 0 c=86.8075e-18
    cg1330 18:z<5> 0 c=25.6275e-18
    cg1329 15:z<5> 0 c=26.1951e-18
    cg1328 14:z<5> 0 c=499.136e-18
    cg1327 13:z<5> 0 c=18.652e-18
    cg1326 u38|mn5|drn 0 c=46.4623e-18
    cg1325 7:z<5> 0 c=1.47539e-18
    cg1324 6:z<5> 0 c=64.9097e-18
    cg1323 5:z<5> 0 c=34.663e-18
    cg1322 3:z<5> 0 c=264.009e-18
    cg1321 1:z<5> 0 c=6.53268e-18
    cg1320 z<5> 0 c=119.501e-21
    cg1319 u37|mp5|drn 0 c=84.9797e-18
    cg1318 30:z<6> 0 c=97.0808e-18
    cg1317 29:z<6> 0 c=26.1064e-18
    cg1316 26:z<6> 0 c=27.4659e-18
    cg1315 25:z<6> 0 c=17.0954e-18
    cg1314 24:z<6> 0 c=206.202e-18
    cg1313 21:z<6> 0 c=17.0425e-18
    cg1312 19:z<6> 0 c=94.5885e-18
    cg1311 18:z<6> 0 c=18.9496e-18
    cg1310 u37|mn5|drn 0 c=47.9117e-18
    cg1309 13:z<6> 0 c=16.007e-18
    cg1308 12:z<6> 0 c=9.95834e-18
    cg1307 11:z<6> 0 c=74.057e-18
    cg1306 z<6> 0 c=226.021e-21
    cg1305 9:z<6> 0 c=31.8582e-18
    cg1304 6:z<6> 0 c=16.6539e-18
    cg1303 3:z<6> 0 c=11.4967e-18
    cg1302 2:z<6> 0 c=540.899e-18
    cg1301 u33|mp5|drn 0 c=83.5527e-18
    cg1300 33:z<9> 0 c=97.6782e-18
    cg1299 32:z<9> 0 c=16.7846e-18
    cg1298 29:z<9> 0 c=26.641e-18
    cg1297 28:z<9> 0 c=143.259e-18
    cg1296 27:z<9> 0 c=17.449e-18
    cg1295 24:z<9> 0 c=21.9351e-18
    cg1294 22:z<9> 0 c=378.257e-18
    cg1293 21:z<9> 0 c=15.7444e-18
    cg1292 u33|mn5|drn 0 c=46.3706e-18
    cg1291 15:z<9> 0 c=4.76536e-18
    cg1290 14:z<9> 0 c=26.4451e-18
    cg1289 13:z<9> 0 c=7.87994e-18
    cg1288 12:z<9> 0 c=82.0334e-18
    cg1287 10:z<9> 0 c=4.86659e-18
    cg1286 9:z<9> 0 c=31.7533e-18
    cg1285 6:z<9> 0 c=13.3718e-18
    cg1284 3:z<9> 0 c=9.75016e-18
    cg1283 2:z<9> 0 c=687.12e-18
    cg1282 u32|mp5|drn 0 c=83.5336e-18
    cg1281 35:z<10> 0 c=91.9322e-18
    cg1280 26:z<10> 0 c=25.8471e-18
    cg1279 25:z<10> 0 c=1.96772e-18
    cg1278 24:z<10> 0 c=7.67078e-18
    cg1277 23:z<10> 0 c=4.79491e-18
    cg1276 20:z<10> 0 c=21.3846e-18
    cg1275 19:z<10> 0 c=20.4572e-18
    cg1274 18:z<10> 0 c=15.3143e-18
    cg1273 16:z<10> 0 c=221.536e-18
    cg1272 u32|mn5|drn 0 c=46.7464e-18
    cg1271 9:z<10> 0 c=65.5472e-18
    cg1270 8:z<10> 0 c=27.4547e-18
    cg1269 5:z<10> 0 c=22.0301e-18
    cg1268 3:z<10> 0 c=9.84852e-18
    cg1267 2:z<10> 0 c=180.792e-18
    cg1266 154:n16 0 c=27.6837e-18
    cg1265 153:n16 0 c=41.431e-18
    cg1264 151:n16 0 c=9.46281e-18
    cg1263 150:n16 0 c=32.8996e-18
    cg1262 u40|mn4|gate 0 c=8.86032e-18
    cg1261 u40|mp4|gate 0 c=3.61865e-18
    cg1260 147:n16 0 c=111.397e-18
    cg1259 146:n16 0 c=20.8482e-18
    cg1258 143:n16 0 c=15.1376e-18
    cg1257 142:n16 0 c=20.8565e-18
    cg1256 140:n16 0 c=51.2162e-18
    cg1255 u33|mn4|gate 0 c=9.096e-18
    cg1254 u33|mp4|gate 0 c=3.39349e-18
    cg1253 137:n16 0 c=111.979e-18
    cg1252 132:n16 0 c=44.6873e-18
    cg1251 131:n16 0 c=40.5165e-18
    cg1250 130:n16 0 c=18.0003e-18
    cg1249 129:n16 0 c=22.0338e-18
    cg1248 128:n16 0 c=6.38302e-18
    cg1247 126:n16 0 c=44.0527e-18
    cg1246 u41|mn4|gate 0 c=9.0465e-18
    cg1245 u41|mp4|gate 0 c=3.16077e-18
    cg1244 123:n16 0 c=112.269e-18
    cg1243 u43|mn4|gate 0 c=9.03711e-18
    cg1242 u43|mp4|gate 0 c=3.80106e-18
    cg1241 120:n16 0 c=112.267e-18
    cg1240 116:n16 0 c=54.5211e-18
    cg1239 icc_place26|mp|drn 0 c=56.1402e-18
    cg1238 112:n16 0 c=20.5176e-18
    cg1237 111:n16 0 c=31.4694e-18
    cg1236 108:n16 0 c=24.0256e-18
    cg1235 icc_place26|mn|drn 0 c=32.2796e-18
    cg1234 107:n16 0 c=39.0112e-18
    cg1233 106:n16 0 c=33.4683e-18
    cg1232 103:n16 0 c=17.2552e-18
    cg1231 100:n16 0 c=30.247e-18
    cg1230 99:n16 0 c=161.282e-18
    cg1229 98:n16 0 c=35.4646e-18
    cg1228 96:n16 0 c=49.0267e-18
    cg1227 95:n16 0 c=42.0532e-18
    cg1226 u32|mp4|gate 0 c=4.22584e-18
    cg1225 u32|mn4|gate 0 c=7.81972e-18
    cg1224 92:n16 0 c=110.457e-18
    cg1223 89:n16 0 c=40.3046e-18
    cg1222 87:n16 0 c=17.1959e-18
    cg1221 86:n16 0 c=18.9027e-18
    cg1220 85:n16 0 c=5.63562e-18
    cg1219 u42|mn4|gate 0 c=8.60579e-18
    cg1218 u42|mp4|gate 0 c=3.69798e-18
    cg1217 82:n16 0 c=111.108e-18
    cg1216 76:n16 0 c=25.7191e-18
    cg1215 75:n16 0 c=26.7457e-18
    cg1214 74:n16 0 c=44.0587e-18
    cg1213 72:n16 0 c=42.4397e-18
    cg1212 u34|mp4|gate 0 c=4.19703e-18
    cg1211 u34|mn4|gate 0 c=7.7707e-18
    cg1210 69:n16 0 c=110.765e-18
    cg1209 68:n16 0 c=12.7503e-18
    cg1208 67:n16 0 c=20.6062e-18
    cg1207 64:n16 0 c=10.8506e-18
    cg1206 63:n16 0 c=12.906e-18
    cg1205 62:n16 0 c=326.131e-18
    cg1204 60:n16 0 c=48.3702e-18
    cg1203 59:n16 0 c=43.3863e-18
    cg1202 u31|mp4|gate 0 c=4.18001e-18
    cg1201 u31|mn4|gate 0 c=8.52332e-18
    cg1200 56:n16 0 c=109.835e-18
    cg1199 55:n16 0 c=10.376e-18
    cg1198 54:n16 0 c=294.219e-18
    cg1197 50:n16 0 c=22.2415e-18
    cg1196 48:n16 0 c=17.1671e-18
    cg1195 46:n16 0 c=12.385e-18
    cg1194 45:n16 0 c=420.086e-18
    cg1193 41:n16 0 c=20.739e-18
    cg1192 36:n16 0 c=17.476e-18
    cg1191 34:n16 0 c=4.55123e-18
    cg1190 31:n16 0 c=13.4669e-18
    cg1189 30:n16 0 c=146.517e-18
    cg1188 28:n16 0 c=7.6726e-18
    cg1187 25:n16 0 c=11.9711e-18
    cg1186 24:n16 0 c=82.1262e-18
    cg1185 20:n16 0 c=14.7733e-18
    cg1184 19:n16 0 c=9.93368e-18
    cg1183 18:n16 0 c=84.6803e-18
    cg1182 15:n16 0 c=19.9497e-18
    cg1181 12:n16 0 c=7.08306e-18
    cg1180 11:n16 0 c=235.541e-18
    cg1179 7:n16 0 c=21.2733e-18
    cg1178 2:n16 0 c=19.0147e-18
    cg1177 u31|mn5|drn 0 c=47.5014e-18
    cg1176 25:z<11> 0 c=1.21643e-18
    cg1175 22:z<11> 0 c=18.882e-18
    cg1174 21:z<11> 0 c=42.2578e-18
    cg1173 20:z<11> 0 c=380.095e-18
    cg1172 z<11> 0 c=23.7845e-21
    cg1171 u31|mp5|drn 0 c=83.7394e-18
    cg1170 19:z<11> 0 c=4.47059e-18
    cg1169 18:z<11> 0 c=25.4813e-18
    cg1168 8:z<11> 0 c=87.146e-18
    cg1167 2:z<11> 0 c=64.9722e-18
    cg1166 1:z<11> 0 c=34.3642e-18
    cg1165 159:a<3> 0 c=44.4242e-18
    cg1164 156:a<3> 0 c=34.1914e-18
    cg1163 155:a<3> 0 c=11.7728e-18
    cg1162 154:a<3> 0 c=37.4207e-18
    cg1161 153:a<3> 0 c=13.2185e-18
    cg1160 u33|mn2|gate 0 c=4.41643e-18
    cg1159 u33|mp2|gate 0 c=3.65171e-18
    cg1158 150:a<3> 0 c=109.979e-18
    cg1157 149:a<3> 0 c=225.807e-18
    cg1156 148:a<3> 0 c=13.6974e-18
    cg1155 147:a<3> 0 c=26.2166e-18
    cg1154 146:a<3> 0 c=6.61411e-18
    cg1153 143:a<3> 0 c=32.1026e-18
    cg1152 142:a<3> 0 c=44.9648e-18
    cg1151 140:a<3> 0 c=55.0998e-18
    cg1150 139:a<3> 0 c=34.8281e-18
    cg1149 u28|mp2|gate 0 c=4.15783e-18
    cg1148 u28|mn2|gate 0 c=3.36727e-18
    cg1147 136:a<3> 0 c=108.838e-18
    cg1146 134:a<3> 0 c=27.6903e-18
    cg1145 133:a<3> 0 c=37.6084e-18
    cg1144 129:a<3> 0 c=22.5027e-18
    cg1143 128:a<3> 0 c=19.6252e-18
    cg1142 127:a<3> 0 c=7.24439e-18
    cg1141 icc_place27|mp|gate 0 c=9.61684e-18
    cg1140 icc_place27|mn|gate 0 c=5.2608e-18
    cg1139 123:a<3> 0 c=92.1855e-18
    cg1138 122:a<3> 0 c=18.2311e-18
    cg1137 120:a<3> 0 c=8.78561e-18
    cg1136 119:a<3> 0 c=30.0776e-18
    cg1135 118:a<3> 0 c=45.3235e-18
    cg1134 116:a<3> 0 c=113.151e-18
    cg1133 115:a<3> 0 c=20.0324e-18
    cg1132 u26|mn2|gate 0 c=4.63085e-18
    cg1131 u26|mp2|gate 0 c=3.84702e-18
    cg1130 112:a<3> 0 c=110.272e-18
    cg1129 109:a<3> 0 c=38.0043e-18
    cg1128 108:a<3> 0 c=44.4254e-18
    cg1127 106:a<3> 0 c=12.6172e-18
    cg1126 105:a<3> 0 c=35.87e-18
    cg1125 100:a<3> 0 c=19.9036e-18
    cg1124 99:a<3> 0 c=20.1808e-18
    cg1123 98:a<3> 0 c=33.7082e-18
    cg1122 97:a<3> 0 c=18.6421e-18
    cg1121 96:a<3> 0 c=30.6046e-18
    cg1120 95:a<3> 0 c=44.7261e-18
    cg1119 93:a<3> 0 c=55.7812e-18
    cg1118 u32|mp2|gate 0 c=3.9851e-18
    cg1117 u32|mn2|gate 0 c=3.42538e-18
    cg1116 90:a<3> 0 c=110.095e-18
    cg1115 89:a<3> 0 c=16.5186e-18
    cg1114 u24|mp3|gate 0 c=4.10388e-18
    cg1113 u24|mn3|gate 0 c=3.85104e-18
    cg1112 86:a<3> 0 c=109.275e-18
    cg1111 u29|mp1|gate 0 c=3.91735e-18
    cg1110 u29|mn1|gate 0 c=8.15682e-18
    cg1109 83:a<3> 0 c=110.707e-18
    cg1108 80:a<3> 0 c=55.8702e-18
    cg1107 79:a<3> 0 c=55.7541e-18
    cg1106 u34|mp1|gate 0 c=3.67922e-18
    cg1105 u34|mn1|gate 0 c=8.24921e-18
    cg1104 76:a<3> 0 c=111.448e-18
    cg1103 73:a<3> 0 c=18.0778e-18
    cg1102 71:a<3> 0 c=187.111e-18
    cg1101 70:a<3> 0 c=17.8901e-18
    cg1100 66:a<3> 0 c=33.8646e-18
    cg1099 65:a<3> 0 c=26.8216e-18
    cg1098 64:a<3> 0 c=55.1883e-18
    cg1097 62:a<3> 0 c=47.875e-18
    cg1096 u31|mp3|gate 0 c=4.11494e-18
    cg1095 u31|mn3|gate 0 c=3.51647e-18
    cg1094 59:a<3> 0 c=108.511e-18
    cg1093 57:a<3> 0 c=5.75571e-18
    cg1092 55:a<3> 0 c=33.0737e-18
    cg1091 53:a<3> 0 c=17.3006e-18
    cg1090 50:a<3> 0 c=20.9674e-18
    cg1089 49:a<3> 0 c=2.67369e-18
    cg1088 48:a<3> 0 c=91.0065e-18
    cg1087 46:a<3> 0 c=16.434e-18
    cg1086 45:a<3> 0 c=191.646e-18
    cg1085 43:a<3> 0 c=10.6366e-18
    cg1084 38:a<3> 0 c=10.8217e-18
    cg1083 35:a<3> 0 c=25.7712e-18
    cg1082 34:a<3> 0 c=8.71538e-18
    cg1081 33:a<3> 0 c=52.9457e-18
    cg1080 31:a<3> 0 c=16.0112e-18
    cg1079 28:a<3> 0 c=14.7069e-18
    cg1078 23:a<3> 0 c=21.2967e-18
    cg1077 19:a<3> 0 c=6.48568e-18
    cg1076 18:a<3> 0 c=396.506e-18
    cg1075 16:a<3> 0 c=18.7778e-18
    cg1074 14:a<3> 0 c=10.5056e-18
    cg1073 13:a<3> 0 c=16.2904e-18
    cg1072 10:a<3> 0 c=17.458e-18
    cg1071 3:a<3> 0 c=8.41427e-18
    cg1070 2:a<3> 0 c=512.621e-18
    cg1069 129:a<1> 0 c=58.9258e-18
    cg1068 128:a<1> 0 c=44.1541e-18
    cg1067 u40|mn2|gate 0 c=4.2355e-18
    cg1066 u40|mp2|gate 0 c=3.49517e-18
    cg1065 125:a<1> 0 c=109.727e-18
    cg1064 122:a<1> 0 c=54.942e-18
    cg1063 120:a<1> 0 c=27.858e-18
    cg1062 119:a<1> 0 c=19.6082e-18
    cg1061 118:a<1> 0 c=20.1412e-18
    cg1060 u41|mn1|gate 0 c=8.82974e-18
    cg1059 u41|mp1|gate 0 c=3.63141e-18
    cg1058 115:a<1> 0 c=111.884e-18
    cg1057 icc_place25|mp|gate 0 c=10.0143e-18
    cg1056 icc_place25|mn|gate 0 c=5.30282e-18
    cg1055 110:a<1> 0 c=91.7459e-18
    cg1054 109:a<1> 0 c=5.47782e-18
    cg1053 a<1> 0 c=133.821e-18
    cg1052 108:a<1> 0 c=24.0454e-18
    cg1051 107:a<1> 0 c=133.196e-18
    cg1050 106:a<1> 0 c=68.8454e-18
    cg1049 105:a<1> 0 c=33.5761e-18
    cg1048 101:a<1> 0 c=44.9591e-18
    cg1047 100:a<1> 0 c=54.5931e-18
    cg1046 99:a<1> 0 c=21.0127e-18
    cg1045 98:a<1> 0 c=60.0722e-18
    cg1044 97:a<1> 0 c=17.1518e-18
    cg1043 96:a<1> 0 c=12.7458e-18
    cg1042 95:a<1> 0 c=55.0643e-18
    cg1041 u26|mn1|gate 0 c=9.01275e-18
    cg1040 u26|mp1|gate 0 c=3.26826e-18
    cg1039 92:a<1> 0 c=109.783e-18
    cg1038 u37|mn1|gate 0 c=8.74874e-18
    cg1037 u37|mp1|gate 0 c=3.94529e-18
    cg1036 89:a<1> 0 c=110.822e-18
    cg1035 87:a<1> 0 c=14.0544e-18
    cg1034 85:a<1> 0 c=78.9348e-18
    cg1033 82:a<1> 0 c=32.8033e-18
    cg1032 81:a<1> 0 c=56.2504e-18
    cg1031 79:a<1> 0 c=101.615e-18
    cg1030 78:a<1> 0 c=28.7993e-18
    cg1029 77:a<1> 0 c=23.2347e-18
    cg1028 76:a<1> 0 c=55.3976e-18
    cg1027 74:a<1> 0 c=70.6073e-18
    cg1026 73:a<1> 0 c=21.5587e-18
    cg1025 u32|mp1|gate 0 c=4.19771e-18
    cg1024 u32|mn1|gate 0 c=7.81501e-18
    cg1023 70:a<1> 0 c=110.195e-18
    cg1022 u24|mp1|gate 0 c=3.90943e-18
    cg1021 u24|mn1|gate 0 c=8.42209e-18
    cg1020 67:a<1> 0 c=109.831e-18
    cg1019 65:a<1> 0 c=44.2565e-18
    cg1018 u36|mn2|gate 0 c=4.41784e-18
    cg1017 u36|mp2|gate 0 c=3.56464e-18
    cg1016 62:a<1> 0 c=109.738e-18
    cg1015 59:a<1> 0 c=25.3471e-18
    cg1014 58:a<1> 0 c=52.8285e-18
    cg1013 56:a<1> 0 c=13.8604e-18
    cg1012 55:a<1> 0 c=10.81e-18
    cg1011 54:a<1> 0 c=38.622e-18
    cg1010 53:a<1> 0 c=66.7003e-18
    cg1009 51:a<1> 0 c=46.4839e-18
    cg1008 u31|mp2|gate 0 c=4.07578e-18
    cg1007 u31|mn2|gate 0 c=3.12754e-18
    cg1006 48:a<1> 0 c=109.67e-18
    cg1005 46:a<1> 0 c=31.5076e-18
    cg1004 44:a<1> 0 c=19.2547e-18
    cg1003 42:a<1> 0 c=16.1992e-18
    cg1002 38:a<1> 0 c=9.16943e-18
    cg1001 37:a<1> 0 c=327.637e-18
    cg1000 34:a<1> 0 c=12.9997e-18
    cg999 33:a<1> 0 c=60.6872e-18
    cg998 32:a<1> 0 c=8.48075e-18
    cg997 31:a<1> 0 c=24.1258e-18
    cg996 29:a<1> 0 c=43.976e-18
    cg995 25:a<1> 0 c=27.6479e-18
    cg994 24:a<1> 0 c=150.54e-18
    cg993 23:a<1> 0 c=24.6934e-18
    cg992 21:a<1> 0 c=20.5391e-18
    cg991 14:a<1> 0 c=10.9082e-18
    cg990 13:a<1> 0 c=126.114e-18
    cg989 11:a<1> 0 c=16.3425e-18
    cg988 9:a<1> 0 c=22.4774e-18
    cg987 7:a<1> 0 c=12.1469e-18
    cg986 3:a<1> 0 c=11.473e-18
    cg985 2:a<1> 0 c=280.284e-18
    cg984 u36|mp5|drn 0 c=83.2606e-18
    cg983 19:z<7> 0 c=94.9484e-18
    cg982 18:z<7> 0 c=10.9189e-18
    cg981 17:z<7> 0 c=3.56496e-18
    cg980 16:z<7> 0 c=24.3089e-18
    cg979 14:z<7> 0 c=17.0203e-18
    cg978 13:z<7> 0 c=19.9176e-18
    cg977 12:z<7> 0 c=12.3157e-18
    cg976 u36|mn5|drn 0 c=47.731e-18
    cg975 z<7> 0 c=39.5873e-21
    cg974 11:z<7> 0 c=6.69561e-18
    cg973 10:z<7> 0 c=108.326e-18
    cg972 3:z<7> 0 c=965.624e-21
    cg971 2:z<7> 0 c=87.801e-18
    cg970 138:a<2> 0 c=60.556e-18
    cg969 137:a<2> 0 c=55.9271e-18
    cg968 136:a<2> 0 c=15.6685e-18
    cg967 135:a<2> 0 c=24.6236e-18
    cg966 134:a<2> 0 c=19.0346e-18
    cg965 u39|mp1|gate 0 c=4.09077e-18
    cg964 u39|mn1|gate 0 c=8.26363e-18
    cg963 131:a<2> 0 c=110.913e-18
    cg962 129:a<2> 0 c=35.7395e-18
    cg961 128:a<2> 0 c=220.495e-18
    cg960 127:a<2> 0 c=2.45169e-18
    cg959 125:a<2> 0 c=131.644e-18
    cg958 124:a<2> 0 c=46.6657e-18
    cg957 123:a<2> 0 c=12.6429e-18
    cg956 122:a<2> 0 c=19.9646e-18
    cg955 u28|mp3|gate 0 c=4.00423e-18
    cg954 u28|mn3|gate 0 c=3.33758e-18
    cg953 119:a<2> 0 c=110.415e-18
    cg952 117:a<2> 0 c=45.2257e-18
    cg951 u38|mp2|gate 0 c=4.57136e-18
    cg950 u38|mn2|gate 0 c=3.36452e-18
    cg949 114:a<2> 0 c=109.78e-18
    cg948 110:a<2> 0 c=33.5845e-18
    cg947 105:a<2> 0 c=43.6696e-18
    cg946 101:a<2> 0 c=48.4734e-18
    cg945 97:a<2> 0 c=38.2263e-18
    cg944 96:a<2> 0 c=21.6048e-18
    cg943 95:a<2> 0 c=26.7085e-18
    cg942 94:a<2> 0 c=39.8533e-18
    cg941 93:a<2> 0 c=20.7741e-18
    cg940 92:a<2> 0 c=22.7137e-18
    cg939 91:a<2> 0 c=13.346e-18
    cg938 90:a<2> 0 c=8.62758e-18
    cg937 89:a<2> 0 c=35.5576e-18
    cg936 88:a<2> 0 c=87.8045e-18
    cg935 87:a<2> 0 c=182.167e-18
    cg934 u26|mn3|gate 0 c=4.01958e-18
    cg933 u26|mp3|gate 0 c=2.85747e-18
    cg932 84:a<2> 0 c=110.602e-18
    cg931 u37|mn2|gate 0 c=4.10393e-18
    cg930 u37|mp2|gate 0 c=3.97976e-18
    cg929 81:a<2> 0 c=109.51e-18
    cg928 80:a<2> 0 c=32.5128e-18
    cg927 icc_place26|mn|gate 0 c=5.63474e-18
    cg926 icc_place26|mp|gate 0 c=9.50236e-18
    cg925 77:a<2> 0 c=91.1088e-18
    cg924 76:a<2> 0 c=6.29745e-18
    cg923 75:a<2> 0 c=22.7252e-18
    cg922 72:a<2> 0 c=22.2631e-18
    cg921 71:a<2> 0 c=15.0729e-18
    cg920 69:a<2> 0 c=11.9891e-18
    cg919 68:a<2> 0 c=23.6259e-18
    cg918 66:a<2> 0 c=88.9579e-18
    cg917 64:a<2> 0 c=45.3603e-18
    cg916 62:a<2> 0 c=30.0069e-18
    cg915 61:a<2> 0 c=27.8429e-18
    cg914 60:a<2> 0 c=9.02986e-18
    cg913 u24|mp4|gate 0 c=4.096e-18
    cg912 u24|mn4|gate 0 c=7.79491e-18
    cg911 57:a<2> 0 c=109.256e-18
    cg910 u29|mp2|gate 0 c=4.02285e-18
    cg909 u29|mn2|gate 0 c=3.13041e-18
    cg908 54:a<2> 0 c=109.137e-18
    cg907 u36|mn3|gate 0 c=5.35181e-18
    cg906 51:a<2> 0 c=15.9998e-18
    cg905 u36|mp3|gate 0 c=3.50187e-18
    cg904 49:a<2> 0 c=109.627e-18
    cg903 47:a<2> 0 c=2.21076e-18
    cg902 45:a<2> 0 c=71.2893e-18
    cg901 42:a<2> 0 c=27.3934e-18
    cg900 41:a<2> 0 c=77.9878e-18
    cg899 38:a<2> 0 c=14.2335e-18
    cg898 35:a<2> 0 c=7.46114e-18
    cg897 33:a<2> 0 c=19.1256e-18
    cg896 30:a<2> 0 c=19.2054e-18
    cg895 28:a<2> 0 c=14.3657e-18
    cg894 26:a<2> 0 c=21.1279e-18
    cg893 25:a<2> 0 c=9.37301e-18
    cg892 24:a<2> 0 c=418.076e-18
    cg891 20:a<2> 0 c=21.2236e-18
    cg890 18:a<2> 0 c=23.0796e-18
    cg889 17:a<2> 0 c=9.22174e-18
    cg888 15:a<2> 0 c=19.2545e-18
    cg887 13:a<2> 0 c=9.34773e-18
    cg886 12:a<2> 0 c=70.2955e-18
    cg885 10:a<2> 0 c=13.6291e-18
    cg884 7:a<2> 0 c=24.4466e-18
    cg883 5:a<2> 0 c=25.8791e-18
    cg882 4:a<2> 0 c=8.03322e-18
    cg881 3:a<2> 0 c=52.677e-18
    cg880 158:n17 0 c=47.5075e-18
    cg879 156:n17 0 c=16.9688e-18
    cg878 155:n17 0 c=53.4921e-18
    cg877 154:n17 0 c=39.3454e-18
    cg876 u40|mn3|gate 0 c=4.24196e-18
    cg875 u40|mp3|gate 0 c=3.83248e-18
    cg874 151:n17 0 c=109.894e-18
    cg873 148:n17 0 c=25.5498e-18
    cg872 147:n17 0 c=43.901e-18
    cg871 145:n17 0 c=53.9676e-18
    cg870 144:n17 0 c=17.4878e-18
    cg869 u39|mp4|gate 0 c=4.20698e-18
    cg868 u39|mn4|gate 0 c=7.75683e-18
    cg867 141:n17 0 c=110.897e-18
    cg866 136:n17 0 c=37.7061e-18
    cg865 135:n17 0 c=44.2293e-18
    cg864 133:n17 0 c=52.2519e-18
    cg863 132:n17 0 c=16.5594e-18
    cg862 131:n17 0 c=8.72741e-18
    cg861 130:n17 0 c=31.9162e-18
    cg860 u41|mn2|gate 0 c=4.34662e-18
    cg859 u41|mp2|gate 0 c=3.79665e-18
    cg858 127:n17 0 c=110.678e-18
    cg857 u43|mn3|gate 0 c=4.49312e-18
    cg856 u43|mp3|gate 0 c=3.53023e-18
    cg855 124:n17 0 c=110.441e-18
    cg854 123:n17 0 c=65.3832e-18
    cg853 122:n17 0 c=24.3035e-18
    cg852 icc_place27|mn|drn 0 c=31.2847e-18
    cg851 119:n17 0 c=34.499e-18
    cg850 118:n17 0 c=12.8499e-18
    cg849 117:n17 0 c=19.9967e-18
    cg848 116:n17 0 c=9.94017e-18
    cg847 113:n17 0 c=16.8602e-18
    cg846 112:n17 0 c=3.94045e-18
    cg845 111:n17 0 c=14.6876e-18
    cg844 icc_place27|mp|drn 0 c=55.7873e-18
    cg843 110:n17 0 c=31.8179e-18
    cg842 109:n17 0 c=47.6217e-18
    cg841 u38|mp4|gate 0 c=4.3103e-18
    cg840 u38|mn4|gate 0 c=8.07545e-18
    cg839 100:n17 0 c=111.882e-18
    cg838 99:n17 0 c=12.8198e-18
    cg837 98:n17 0 c=23.2741e-18
    cg836 97:n17 0 c=13.1186e-18
    cg835 95:n17 0 c=72.8461e-18
    cg834 94:n17 0 c=23.1645e-18
    cg833 93:n17 0 c=41.6966e-18
    cg832 92:n17 0 c=11.7487e-18
    cg831 u37|mn3|gate 0 c=4.72317e-18
    cg830 u37|mp3|gate 0 c=4.03696e-18
    cg829 89:n17 0 c=109.938e-18
    cg828 85:n17 0 c=17.1949e-18
    cg827 84:n17 0 c=23.3251e-18
    cg826 83:n17 0 c=5.82482e-18
    cg825 81:n17 0 c=45.8049e-18
    cg824 u42|mn3|gate 0 c=4.03224e-18
    cg823 u42|mp3|gate 0 c=3.72274e-18
    cg822 78:n17 0 c=109.847e-18
    cg821 74:n17 0 c=15.8461e-18
    cg820 73:n17 0 c=21.2579e-18
    cg819 72:n17 0 c=29.0754e-18
    cg818 70:n17 0 c=43.6552e-18
    cg817 u36|mn4|gate 0 c=9.05207e-18
    cg816 u36|mp4|gate 0 c=3.69508e-18
    cg815 67:n17 0 c=110.065e-18
    cg814 66:n17 0 c=871.195e-21
    cg813 64:n17 0 c=9.44636e-18
    cg812 63:n17 0 c=4.16078e-18
    cg811 62:n17 0 c=25.8993e-18
    cg810 60:n17 0 c=26.1372e-18
    cg809 58:n17 0 c=9.42937e-18
    cg808 56:n17 0 c=92.8625e-18
    cg807 55:n17 0 c=15.9429e-18
    cg806 52:n17 0 c=21.7267e-18
    cg805 46:n17 0 c=18.4269e-18
    cg804 45:n17 0 c=231.354e-18
    cg803 43:n17 0 c=25.4821e-18
    cg802 39:n17 0 c=9.78016e-18
    cg801 38:n17 0 c=39.6804e-18
    cg800 36:n17 0 c=14.1648e-18
    cg799 34:n17 0 c=6.75953e-18
    cg798 32:n17 0 c=20.0903e-18
    cg797 31:n17 0 c=13.8734e-18
    cg796 30:n17 0 c=15.9254e-18
    cg795 28:n17 0 c=21.7921e-18
    cg794 27:n17 0 c=7.74381e-18
    cg793 26:n17 0 c=21.2946e-18
    cg792 24:n17 0 c=25.6914e-18
    cg791 22:n17 0 c=10.2264e-18
    cg790 20:n17 0 c=40.4776e-18
    cg789 19:n17 0 c=15.618e-18
    cg788 18:n17 0 c=12.4621e-18
    cg787 16:n17 0 c=15.5418e-18
    cg786 10:n17 0 c=11.2876e-18
    cg785 9:n17 0 c=188.717e-18
    cg784 6:n17 0 c=25.6972e-18
    cg783 3:n17 0 c=4.71404e-18
    cg782 2:n17 0 c=220.456e-18
    cg781 155:n14 0 c=25.4621e-18
    cg780 152:n14 0 c=16.1916e-18
    cg779 151:n14 0 c=24.108e-18
    cg778 149:n14 0 c=56.2211e-18
    cg777 u39|mp3|gate 0 c=4.09692e-18
    cg776 u39|mn3|gate 0 c=3.85339e-18
    cg775 146:n14 0 c=110.187e-18
    cg774 142:n14 0 c=46.4047e-18
    cg773 140:n14 0 c=44.8184e-18
    cg772 138:n14 0 c=18.6294e-18
    cg771 137:n14 0 c=51.6005e-18
    cg770 136:n14 0 c=31.4801e-18
    cg769 134:n14 0 c=31.5559e-18
    cg768 133:n14 0 c=26.7095e-18
    cg767 132:n14 0 c=8.71766e-18
    cg766 u41|mn3|gate 0 c=4.3588e-18
    cg765 u41|mp3|gate 0 c=3.57317e-18
    cg764 129:n14 0 c=110.207e-18
    cg763 u43|mn2|gate 0 c=4.2e-18
    cg762 u43|mp2|gate 0 c=4.01081e-18
    cg761 126:n14 0 c=109.931e-18
    cg760 icc_place24|mn|drn 0 c=32.9006e-18
    cg759 123:n14 0 c=35.8169e-18
    cg758 122:n14 0 c=38.5643e-18
    cg757 118:n14 0 c=24.4658e-18
    cg756 icc_place24|mp|drn 0 c=56.2592e-18
    cg755 116:n14 0 c=32.4818e-18
    cg754 115:n14 0 c=49.2379e-18
    cg753 109:n14 0 c=20.2897e-18
    cg752 108:n14 0 c=31.4714e-18
    cg751 107:n14 0 c=116.06e-18
    cg750 106:n14 0 c=40.8978e-18
    cg749 101:n14 0 c=33.6764e-18
    cg748 100:n14 0 c=44.4378e-18
    cg747 98:n14 0 c=76.088e-18
    cg746 97:n14 0 c=21.8825e-18
    cg745 96:n14 0 c=24.5845e-18
    cg744 95:n14 0 c=24.3971e-18
    cg743 94:n14 0 c=31.2855e-18
    cg742 92:n14 0 c=44.0658e-18
    cg741 91:n14 0 c=14.4792e-18
    cg740 90:n14 0 c=21.0778e-18
    cg739 u26|mn4|gate 0 c=8.85112e-18
    cg738 u26|mp4|gate 0 c=3.77485e-18
    cg737 87:n14 0 c=111.065e-18
    cg736 u37|mn4|gate 0 c=8.73569e-18
    cg735 u37|mp4|gate 0 c=3.29858e-18
    cg734 84:n14 0 c=110.761e-18
    cg733 83:n14 0 c=21.9792e-18
    cg732 82:n14 0 c=24.2091e-18
    cg731 81:n14 0 c=81.7852e-18
    cg730 78:n14 0 c=15.4016e-18
    cg729 77:n14 0 c=31.9037e-18
    cg728 76:n14 0 c=64.6599e-18
    cg727 74:n14 0 c=44.7513e-18
    cg726 71:n14 0 c=22.2742e-18
    cg725 70:n14 0 c=47.2417e-18
    cg724 68:n14 0 c=119.127e-18
    cg723 67:n14 0 c=25.1385e-18
    cg722 u32|mp3|gate 0 c=4.1123e-18
    cg721 u32|mn3|gate 0 c=3.52002e-18
    cg720 64:n14 0 c=109.28e-18
    cg719 u29|mp4|gate 0 c=4.21406e-18
    cg718 u29|mn4|gate 0 c=7.77726e-18
    cg717 61:n14 0 c=109.583e-18
    cg716 58:n14 0 c=46.8731e-18
    cg715 56:n14 0 c=24.5516e-18
    cg714 55:n14 0 c=19.999e-18
    cg713 54:n14 0 c=7.7054e-18
    cg712 u34|mp3|gate 0 c=4.07686e-18
    cg711 u34|mn3|gate 0 c=3.04356e-18
    cg710 51:n14 0 c=109.526e-18
    cg709 50:n14 0 c=21.7666e-18
    cg708 45:n14 0 c=18.1097e-18
    cg707 41:n14 0 c=9.7404e-18
    cg706 40:n14 0 c=270.381e-18
    cg705 38:n14 0 c=12.0824e-18
    cg704 37:n14 0 c=85.504e-18
    cg703 34:n14 0 c=16.3409e-18
    cg702 32:n14 0 c=22.1226e-18
    cg701 30:n14 0 c=19.5058e-18
    cg700 28:n14 0 c=9.2571e-18
    cg699 27:n14 0 c=118.035e-18
    cg698 26:n14 0 c=18.4917e-18
    cg697 24:n14 0 c=17.3592e-18
    cg696 20:n14 0 c=5.91058e-18
    cg695 19:n14 0 c=117.587e-18
    cg694 17:n14 0 c=24.7894e-18
    cg693 12:n14 0 c=15.3291e-18
    cg692 8:n14 0 c=8.09705e-18
    cg691 7:n14 0 c=391.399e-18
    cg690 2:n14 0 c=19.7387e-18
    cg689 1:n14 0 c=181.266e-18
    cg688 113:a<0> 0 c=54.8559e-18
    cg687 u40|mn1|gate 0 c=8.6747e-18
    cg686 u40|mp1|gate 0 c=3.48369e-18
    cg685 110:a<0> 0 c=111.583e-18
    cg684 109:a<0> 0 c=16.7921e-18
    cg683 107:a<0> 0 c=32.2584e-18
    cg682 106:a<0> 0 c=54.9194e-18
    cg681 u33|mn1|gate 0 c=9.16149e-18
    cg680 u33|mp1|gate 0 c=3.47547e-18
    cg679 103:a<0> 0 c=110.414e-18
    cg678 102:a<0> 0 c=15.2697e-18
    cg677 101:a<0> 0 c=262.912e-18
    cg676 100:a<0> 0 c=23.3158e-18
    cg675 99:a<0> 0 c=131.134e-18
    cg674 96:a<0> 0 c=54.489e-18
    cg673 94:a<0> 0 c=22.4615e-18
    cg672 93:a<0> 0 c=37.1293e-18
    cg671 u28|mp1|gate 0 c=4.02666e-18
    cg670 u28|mn1|gate 0 c=7.93958e-18
    cg669 90:a<0> 0 c=110.122e-18
    cg668 88:a<0> 0 c=27.3153e-18
    cg667 87:a<0> 0 c=37.3744e-18
    cg666 85:a<0> 0 c=43.7321e-18
    cg665 81:a<0> 0 c=28.943e-18
    cg664 80:a<0> 0 c=56.0349e-18
    cg663 78:a<0> 0 c=9.35552e-18
    cg662 77:a<0> 0 c=26.5078e-18
    cg661 icc_place24|mp|gate 0 c=9.68785e-18
    cg660 icc_place24|mn|gate 0 c=5.26186e-18
    cg659 74:a<0> 0 c=91.2685e-18
    cg658 u38|mp1|gate 0 c=4.01267e-18
    cg657 u38|mn1|gate 0 c=7.84006e-18
    cg656 71:a<0> 0 c=111.41e-18
    cg655 69:a<0> 0 c=12.4664e-18
    cg654 68:a<0> 0 c=19.2417e-18
    cg653 67:a<0> 0 c=98.4511e-18
    cg652 64:a<0> 0 c=65.494e-18
    cg651 63:a<0> 0 c=45.0315e-18
    cg650 u24|mp2|gate 0 c=4.04978e-18
    cg649 u24|mn2|gate 0 c=3.12744e-18
    cg648 60:a<0> 0 c=109.041e-18
    cg647 u42|mn1|gate 0 c=8.62031e-18
    cg646 57:a<0> 0 c=54.6257e-18
    cg645 u42|mp1|gate 0 c=3.4521e-18
    cg644 55:a<0> 0 c=110.465e-18
    cg643 54:a<0> 0 c=18.7861e-18
    cg642 53:a<0> 0 c=10.152e-18
    cg641 52:a<0> 0 c=142.163e-18
    cg640 51:a<0> 0 c=9.10732e-18
    cg639 50:a<0> 0 c=25.7024e-18
    cg638 u36|mn1|gate 0 c=8.46873e-18
    cg637 47:a<0> 0 c=54.3697e-18
    cg636 u36|mp1|gate 0 c=3.38385e-18
    cg635 45:a<0> 0 c=110.655e-18
    cg634 44:a<0> 0 c=17.4303e-18
    cg633 42:a<0> 0 c=117.511e-18
    cg632 40:a<0> 0 c=14.3451e-18
    cg631 39:a<0> 0 c=187.672e-18
    cg630 37:a<0> 0 c=27.4403e-18
    cg629 35:a<0> 0 c=55.4534e-18
    cg628 u31|mp1|gate 0 c=4.48944e-18
    cg627 u31|mn1|gate 0 c=7.91003e-18
    cg626 32:a<0> 0 c=110.212e-18
    cg625 29:a<0> 0 c=159.223e-18
    cg624 a<0> 0 c=113.384e-21
    cg623 27:a<0> 0 c=25.6751e-18
    cg622 23:a<0> 0 c=11.2962e-18
    cg621 22:a<0> 0 c=83.3182e-18
    cg620 19:a<0> 0 c=8.85478e-18
    cg619 17:a<0> 0 c=289.6e-18
    cg618 16:a<0> 0 c=10.3468e-18
    cg617 15:a<0> 0 c=19.7786e-18
    cg616 14:a<0> 0 c=20.1342e-18
    cg615 9:a<0> 0 c=20.2191e-18
    cg614 3:a<0> 0 c=11.8255e-18
    cg613 2:a<0> 0 c=486.149e-18
    cg612 u34|mn5|drn 0 c=48.2494e-18
    cg611 24:z<8> 0 c=28.8258e-18
    cg610 u34|mp5|drn 0 c=84.3776e-18
    cg609 23:z<8> 0 c=5.25624e-18
    cg608 22:z<8> 0 c=26.9384e-18
    cg607 12:z<8> 0 c=95.7995e-18
    cg606 z<8> 0 c=223.038e-21
    cg605 10:z<8> 0 c=7.30134e-18
    cg604 9:z<8> 0 c=106.312e-18
    cg603 2:z<8> 0 c=63.5443e-18
    cg602 1:z<8> 0 c=36.0539e-18
    cg601 125:n15 0 c=44.8641e-18
    cg600 u39|mp2|gate 0 c=3.9975e-18
    cg599 u39|mn2|gate 0 c=3.2906e-18
    cg598 122:n15 0 c=109.748e-18
    cg597 120:n15 0 c=6.71042e-18
    cg596 119:n15 0 c=22.175e-18
    cg595 117:n15 0 c=48.4313e-18
    cg594 u33|mn3|gate 0 c=4.26256e-18
    cg593 u33|mp3|gate 0 c=3.72186e-18
    cg592 114:n15 0 c=109.27e-18
    cg591 112:n15 0 c=171.929e-18
    cg590 111:n15 0 c=22.0243e-18
    cg589 110:n15 0 c=27.5178e-18
    cg588 109:n15 0 c=174.829e-18
    cg587 107:n15 0 c=33.2834e-18
    cg586 106:n15 0 c=42.4922e-18
    cg585 104:n15 0 c=9.86072e-18
    cg584 103:n15 0 c=9.1949e-18
    cg583 u28|mp4|gate 0 c=4.2913e-18
    cg582 u28|mn4|gate 0 c=7.8544e-18
    cg581 100:n15 0 c=111.738e-18
    cg580 u43|mn1|gate 0 c=8.67279e-18
    cg579 97:n15 0 c=55.1411e-18
    cg578 u43|mp1|gate 0 c=4.05863e-18
    cg577 95:n15 0 c=111.485e-18
    cg576 92:n15 0 c=21.0816e-18
    cg575 91:n15 0 c=95.7627e-18
    cg574 87:n15 0 c=18.5717e-18
    cg573 86:n15 0 c=5.62936e-18
    cg572 icc_place25|mn|drn 0 c=32.5238e-18
    cg571 83:n15 0 c=35.3593e-18
    cg570 81:n15 0 c=12.7427e-18
    cg569 80:n15 0 c=8.26915e-18
    cg568 79:n15 0 c=19.2441e-18
    cg567 78:n15 0 c=20.3282e-18
    cg566 76:n15 0 c=37.3172e-18
    cg565 73:n15 0 c=29.3674e-18
    cg564 72:n15 0 c=47.6659e-18
    cg563 70:n15 0 c=39.7733e-18
    cg562 69:n15 0 c=17.983e-18
    cg561 icc_place25|mp|drn 0 c=55.6865e-18
    cg560 67:n15 0 c=34.0955e-18
    cg559 66:n15 0 c=54.087e-18
    cg558 u38|mp3|gate 0 c=4.16612e-18
    cg557 u38|mn3|gate 0 c=3.17418e-18
    cg556 58:n15 0 c=110.369e-18
    cg555 55:n15 0 c=27.6059e-18
    cg554 54:n15 0 c=22.2918e-18
    cg553 53:n15 0 c=41.1485e-18
    cg552 52:n15 0 c=17.4931e-18
    cg551 u29|mp3|gate 0 c=3.99337e-18
    cg550 u29|mn3|gate 0 c=3.33879e-18
    cg549 49:n15 0 c=108.979e-18
    cg548 47:n15 0 c=43.5496e-18
    cg547 u42|mn2|gate 0 c=4.13962e-18
    cg546 u42|mp2|gate 0 c=3.61483e-18
    cg545 44:n15 0 c=109.842e-18
    cg544 42:n15 0 c=258.505e-18
    cg543 40:n15 0 c=25.054e-18
    cg542 39:n15 0 c=94.7519e-18
    cg541 36:n15 0 c=25.7447e-18
    cg540 35:n15 0 c=21.933e-18
    cg539 34:n15 0 c=44.7696e-18
    cg538 33:n15 0 c=14.2502e-18
    cg537 32:n15 0 c=24.8545e-18
    cg536 u34|mp2|gate 0 c=4.11263e-18
    cg535 u34|mn2|gate 0 c=2.68307e-18
    cg534 29:n15 0 c=110.033e-18
    cg533 28:n15 0 c=16.6126e-18
    cg532 26:n15 0 c=159.46e-18
    cg531 24:n15 0 c=7.62751e-18
    cg530 23:n15 0 c=8.06118e-18
    cg529 22:n15 0 c=11.2818e-18
    cg528 21:n15 0 c=43.478e-18
    cg527 19:n15 0 c=20.9633e-18
    cg526 16:n15 0 c=24.5799e-18
    cg525 13:n15 0 c=24.9134e-18
    cg524 12:n15 0 c=9.7386e-18
    cg523 11:n15 0 c=26.7563e-18
    cg522 8:n15 0 c=10.232e-18
    cg521 7:n15 0 c=18.3356e-18
    cg520 2:n15 0 c=22.3743e-18
    cg519 1:n15 0 c=134.624e-18
    cg518 35:z<1> 0 c=18.1076e-18
    cg517 34:z<1> 0 c=129.189e-18
    cg516 z<1> 0 c=18.0019e-21
    cg515 u42|mp5|drn 0 c=83.0718e-18
    cg514 23:z<1> 0 c=94.2854e-18
    cg513 22:z<1> 0 c=10.8012e-18
    cg512 21:z<1> 0 c=3.59552e-18
    cg511 20:z<1> 0 c=25.0127e-18
    cg510 18:z<1> 0 c=14.5486e-18
    cg509 17:z<1> 0 c=20.4374e-18
    cg508 16:z<1> 0 c=12.4581e-18
    cg507 u42|mn5|drn 0 c=47.2723e-18
    cg506 15:z<1> 0 c=10.5651e-18
    cg505 14:z<1> 0 c=134.09e-18
    cg504 10:z<1> 0 c=15.6921e-18
    cg503 3:z<1> 0 c=1.30611e-18
    cg502 2:z<1> 0 c=88.2171e-18
    cg501 u43|mp5|drn 0 c=83.7951e-18
    cg500 25:z<0> 0 c=89.8297e-18
    cg499 24:z<0> 0 c=24.5228e-18
    cg498 23:z<0> 0 c=3.83258e-18
    cg497 22:z<0> 0 c=18.6917e-18
    cg496 21:z<0> 0 c=109.871e-18
    cg495 20:z<0> 0 c=18.6759e-18
    cg494 19:z<0> 0 c=15.2255e-18
    cg493 18:z<0> 0 c=43.8604e-18
    cg492 u43|mn5|drn 0 c=48.8507e-18
    cg491 13:z<0> 0 c=10.8178e-18
    cg490 12:z<0> 0 c=27.002e-18